[submodule "GEOS-Chem"]
	path = src/GEOS-Chem
	url = https://github.com/geoschem/geos-chem.git
[submodule "HEMCO"]
	path = src/HEMCO
	url = https://github.com/geoschem/hemco.git
[submodule "geos-chem-shared-docs"]
	path = docs/source/geos-chem-shared-docs
	url = https://github.com/geoschem/geos-chem-shared-docs.git
[submodule "Cloud-J"]
	path = src/Cloud-J
	url = https://github.com/geoschem/Cloud-J.git